
---------- Begin Simulation Statistics ----------
final_tick                               200346530000                       # Number of ticks from beginning of simulation (restored from checkpoints and never reset)
host_inst_rate                                 274203                       # Simulator instruction rate (inst/s)
host_mem_usage                                 699336                       # Number of bytes of host memory used
host_op_rate                                   274213                       # Simulator op (including micro ops) rate (op/s)
host_seconds                                   364.69                       # Real time elapsed on the host
host_tick_rate                              549356274                       # Simulator tick rate (ticks/s)
sim_freq                                 1000000000000                       # Frequency of simulated ticks
sim_insts                                   100000000                       # Number of instructions simulated
sim_ops                                     100003637                       # Number of ops (including micro ops) simulated
sim_seconds                                  0.200347                       # Number of seconds simulated
sim_ticks                                200346530000                       # Number of ticks simulated
system.cpu.branchPred.BTBCorrect                    0                       # Number of correct BTB predictions (this stat may not work properly.
system.cpu.branchPred.BTBHitPct             99.504730                       # BTB Hit Percentage
system.cpu.branchPred.BTBHits                  596904                       # Number of BTB hits
system.cpu.branchPred.BTBLookups               599875                       # Number of BTB lookups
system.cpu.branchPred.RASInCorrect                  7                       # Number of incorrect RAS predictions.
system.cpu.branchPred.condIncorrect               868                       # Number of conditional branches incorrect
system.cpu.branchPred.condPredicted            599950                       # Number of conditional branches predicted
system.cpu.branchPred.indirectHits                164                       # Number of indirect target hits.
system.cpu.branchPred.indirectLookups             377                       # Number of indirect predictor lookups.
system.cpu.branchPred.indirectMisses              213                       # Number of indirect misses.
system.cpu.branchPred.lookups                  602139                       # Number of BP lookups
system.cpu.branchPred.usedRAS                     609                       # Number of times the RAS was used to get a target.
system.cpu.branchPredindirectMispredicted          111                       # Number of mispredicted indirect branches.
system.cpu.committedInsts                   100000000                       # Number of instructions committed
system.cpu.committedOps                     100003637                       # Number of ops (including micro ops) committed
system.cpu.cpi                               2.003465                       # CPI: cycles per instruction
system.cpu.discardedOps                          2710                       # Number of ops (including micro ops) which were discarded before commit
system.cpu.dtb.accesses                             0                       # DTB accesses
system.cpu.dtb.align_faults                         0                       # Number of TLB faults due to alignment restrictions
system.cpu.dtb.domain_faults                        0                       # Number of TLB faults due to domain restrictions
system.cpu.dtb.flush_entries                        0                       # Number of entries that have been flushed from TLB
system.cpu.dtb.flush_tlb                            0                       # Number of times complete TLB was flushed
system.cpu.dtb.flush_tlb_asid                       0                       # Number of times TLB was flushed by ASID
system.cpu.dtb.flush_tlb_mva                        0                       # Number of times TLB was flushed by MVA
system.cpu.dtb.flush_tlb_mva_asid                   0                       # Number of times TLB was flushed by MVA & ASID
system.cpu.dtb.hits                                 0                       # DTB hits
system.cpu.dtb.inst_accesses                        0                       # ITB inst accesses
system.cpu.dtb.inst_hits                            0                       # ITB inst hits
system.cpu.dtb.inst_misses                          0                       # ITB inst misses
system.cpu.dtb.misses                               0                       # DTB misses
system.cpu.dtb.perms_faults                         0                       # Number of TLB faults due to permissions restrictions
system.cpu.dtb.prefetch_faults                      0                       # Number of TLB faults due to prefetch
system.cpu.dtb.read_accesses                        0                       # DTB read accesses
system.cpu.dtb.read_hits                            0                       # DTB read hits
system.cpu.dtb.read_misses                          0                       # DTB read misses
system.cpu.dtb.stage2_mmu.stage2_tlb.accesses            0                       # DTB accesses
system.cpu.dtb.stage2_mmu.stage2_tlb.align_faults            0                       # Number of TLB faults due to alignment restrictions
system.cpu.dtb.stage2_mmu.stage2_tlb.domain_faults            0                       # Number of TLB faults due to domain restrictions
system.cpu.dtb.stage2_mmu.stage2_tlb.flush_entries            0                       # Number of entries that have been flushed from TLB
system.cpu.dtb.stage2_mmu.stage2_tlb.flush_tlb            0                       # Number of times complete TLB was flushed
system.cpu.dtb.stage2_mmu.stage2_tlb.flush_tlb_asid            0                       # Number of times TLB was flushed by ASID
system.cpu.dtb.stage2_mmu.stage2_tlb.flush_tlb_mva            0                       # Number of times TLB was flushed by MVA
system.cpu.dtb.stage2_mmu.stage2_tlb.flush_tlb_mva_asid            0                       # Number of times TLB was flushed by MVA & ASID
system.cpu.dtb.stage2_mmu.stage2_tlb.hits            0                       # DTB hits
system.cpu.dtb.stage2_mmu.stage2_tlb.inst_accesses            0                       # ITB inst accesses
system.cpu.dtb.stage2_mmu.stage2_tlb.inst_hits            0                       # ITB inst hits
system.cpu.dtb.stage2_mmu.stage2_tlb.inst_misses            0                       # ITB inst misses
system.cpu.dtb.stage2_mmu.stage2_tlb.misses            0                       # DTB misses
system.cpu.dtb.stage2_mmu.stage2_tlb.perms_faults            0                       # Number of TLB faults due to permissions restrictions
system.cpu.dtb.stage2_mmu.stage2_tlb.prefetch_faults            0                       # Number of TLB faults due to prefetch
system.cpu.dtb.stage2_mmu.stage2_tlb.read_accesses            0                       # DTB read accesses
system.cpu.dtb.stage2_mmu.stage2_tlb.read_hits            0                       # DTB read hits
system.cpu.dtb.stage2_mmu.stage2_tlb.read_misses            0                       # DTB read misses
system.cpu.dtb.stage2_mmu.stage2_tlb.walker.walkRequestOrigin_Requested::Data            0                       # Table walker requests started/completed, data/inst
system.cpu.dtb.stage2_mmu.stage2_tlb.walker.walkRequestOrigin_Requested::Inst            0                       # Table walker requests started/completed, data/inst
system.cpu.dtb.stage2_mmu.stage2_tlb.walker.walkRequestOrigin_Requested::total            0                       # Table walker requests started/completed, data/inst
system.cpu.dtb.stage2_mmu.stage2_tlb.walker.walkRequestOrigin_Completed::Data            0                       # Table walker requests started/completed, data/inst
system.cpu.dtb.stage2_mmu.stage2_tlb.walker.walkRequestOrigin_Completed::Inst            0                       # Table walker requests started/completed, data/inst
system.cpu.dtb.stage2_mmu.stage2_tlb.walker.walkRequestOrigin_Completed::total            0                       # Table walker requests started/completed, data/inst
system.cpu.dtb.stage2_mmu.stage2_tlb.walker.walkRequestOrigin::total            0                       # Table walker requests started/completed, data/inst
system.cpu.dtb.stage2_mmu.stage2_tlb.walker.walks            0                       # Table walker walks requested
system.cpu.dtb.stage2_mmu.stage2_tlb.write_accesses            0                       # DTB write accesses
system.cpu.dtb.stage2_mmu.stage2_tlb.write_hits            0                       # DTB write hits
system.cpu.dtb.stage2_mmu.stage2_tlb.write_misses            0                       # DTB write misses
system.cpu.dtb.walker.walkRequestOrigin_Requested::Data            0                       # Table walker requests started/completed, data/inst
system.cpu.dtb.walker.walkRequestOrigin_Requested::Inst            0                       # Table walker requests started/completed, data/inst
system.cpu.dtb.walker.walkRequestOrigin_Requested::total            0                       # Table walker requests started/completed, data/inst
system.cpu.dtb.walker.walkRequestOrigin_Completed::Data            0                       # Table walker requests started/completed, data/inst
system.cpu.dtb.walker.walkRequestOrigin_Completed::Inst            0                       # Table walker requests started/completed, data/inst
system.cpu.dtb.walker.walkRequestOrigin_Completed::total            0                       # Table walker requests started/completed, data/inst
system.cpu.dtb.walker.walkRequestOrigin::total            0                       # Table walker requests started/completed, data/inst
system.cpu.dtb.walker.walks                         0                       # Table walker walks requested
system.cpu.dtb.write_accesses                       0                       # DTB write accesses
system.cpu.dtb.write_hits                           0                       # DTB write hits
system.cpu.dtb.write_misses                         0                       # DTB write misses
system.cpu.fetch2.amo_instructions                  0                       # Number of memory atomic instructions successfully decoded
system.cpu.fetch2.fp_instructions                   0                       # Number of floating point instructions successfully decoded
system.cpu.fetch2.int_instructions           49411977                       # Number of integer instructions successfully decoded
system.cpu.fetch2.load_instructions          36901114                       # Number of memory load instructions successfully decoded
system.cpu.fetch2.store_instructions         13094528                       # Number of memory store instructions successfully decoded
system.cpu.fetch2.vec_instructions                  0                       # Number of SIMD instructions successfully decoded
system.cpu.idleCycles                        85455843                       # Total number of cycles that the object has spent stopped
system.cpu.ipc                               0.499135                       # IPC: instructions per cycle
system.cpu.itb.accesses                             0                       # DTB accesses
system.cpu.itb.align_faults                         0                       # Number of TLB faults due to alignment restrictions
system.cpu.itb.domain_faults                        0                       # Number of TLB faults due to domain restrictions
system.cpu.itb.flush_entries                        0                       # Number of entries that have been flushed from TLB
system.cpu.itb.flush_tlb                            0                       # Number of times complete TLB was flushed
system.cpu.itb.flush_tlb_asid                       0                       # Number of times TLB was flushed by ASID
system.cpu.itb.flush_tlb_mva                        0                       # Number of times TLB was flushed by MVA
system.cpu.itb.flush_tlb_mva_asid                   0                       # Number of times TLB was flushed by MVA & ASID
system.cpu.itb.hits                                 0                       # DTB hits
system.cpu.itb.inst_accesses                        0                       # ITB inst accesses
system.cpu.itb.inst_hits                            0                       # ITB inst hits
system.cpu.itb.inst_misses                          0                       # ITB inst misses
system.cpu.itb.misses                               0                       # DTB misses
system.cpu.itb.perms_faults                         0                       # Number of TLB faults due to permissions restrictions
system.cpu.itb.prefetch_faults                      0                       # Number of TLB faults due to prefetch
system.cpu.itb.read_accesses                        0                       # DTB read accesses
system.cpu.itb.read_hits                            0                       # DTB read hits
system.cpu.itb.read_misses                          0                       # DTB read misses
system.cpu.itb.stage2_mmu.stage2_tlb.accesses            0                       # DTB accesses
system.cpu.itb.stage2_mmu.stage2_tlb.align_faults            0                       # Number of TLB faults due to alignment restrictions
system.cpu.itb.stage2_mmu.stage2_tlb.domain_faults            0                       # Number of TLB faults due to domain restrictions
system.cpu.itb.stage2_mmu.stage2_tlb.flush_entries            0                       # Number of entries that have been flushed from TLB
system.cpu.itb.stage2_mmu.stage2_tlb.flush_tlb            0                       # Number of times complete TLB was flushed
system.cpu.itb.stage2_mmu.stage2_tlb.flush_tlb_asid            0                       # Number of times TLB was flushed by ASID
system.cpu.itb.stage2_mmu.stage2_tlb.flush_tlb_mva            0                       # Number of times TLB was flushed by MVA
system.cpu.itb.stage2_mmu.stage2_tlb.flush_tlb_mva_asid            0                       # Number of times TLB was flushed by MVA & ASID
system.cpu.itb.stage2_mmu.stage2_tlb.hits            0                       # DTB hits
system.cpu.itb.stage2_mmu.stage2_tlb.inst_accesses            0                       # ITB inst accesses
system.cpu.itb.stage2_mmu.stage2_tlb.inst_hits            0                       # ITB inst hits
system.cpu.itb.stage2_mmu.stage2_tlb.inst_misses            0                       # ITB inst misses
system.cpu.itb.stage2_mmu.stage2_tlb.misses            0                       # DTB misses
system.cpu.itb.stage2_mmu.stage2_tlb.perms_faults            0                       # Number of TLB faults due to permissions restrictions
system.cpu.itb.stage2_mmu.stage2_tlb.prefetch_faults            0                       # Number of TLB faults due to prefetch
system.cpu.itb.stage2_mmu.stage2_tlb.read_accesses            0                       # DTB read accesses
system.cpu.itb.stage2_mmu.stage2_tlb.read_hits            0                       # DTB read hits
system.cpu.itb.stage2_mmu.stage2_tlb.read_misses            0                       # DTB read misses
system.cpu.itb.stage2_mmu.stage2_tlb.walker.walkRequestOrigin_Requested::Data            0                       # Table walker requests started/completed, data/inst
system.cpu.itb.stage2_mmu.stage2_tlb.walker.walkRequestOrigin_Requested::Inst            0                       # Table walker requests started/completed, data/inst
system.cpu.itb.stage2_mmu.stage2_tlb.walker.walkRequestOrigin_Requested::total            0                       # Table walker requests started/completed, data/inst
system.cpu.itb.stage2_mmu.stage2_tlb.walker.walkRequestOrigin_Completed::Data            0                       # Table walker requests started/completed, data/inst
system.cpu.itb.stage2_mmu.stage2_tlb.walker.walkRequestOrigin_Completed::Inst            0                       # Table walker requests started/completed, data/inst
system.cpu.itb.stage2_mmu.stage2_tlb.walker.walkRequestOrigin_Completed::total            0                       # Table walker requests started/completed, data/inst
system.cpu.itb.stage2_mmu.stage2_tlb.walker.walkRequestOrigin::total            0                       # Table walker requests started/completed, data/inst
system.cpu.itb.stage2_mmu.stage2_tlb.walker.walks            0                       # Table walker walks requested
system.cpu.itb.stage2_mmu.stage2_tlb.write_accesses            0                       # DTB write accesses
system.cpu.itb.stage2_mmu.stage2_tlb.write_hits            0                       # DTB write hits
system.cpu.itb.stage2_mmu.stage2_tlb.write_misses            0                       # DTB write misses
system.cpu.itb.walker.walkRequestOrigin_Requested::Data            0                       # Table walker requests started/completed, data/inst
system.cpu.itb.walker.walkRequestOrigin_Requested::Inst            0                       # Table walker requests started/completed, data/inst
system.cpu.itb.walker.walkRequestOrigin_Requested::total            0                       # Table walker requests started/completed, data/inst
system.cpu.itb.walker.walkRequestOrigin_Completed::Data            0                       # Table walker requests started/completed, data/inst
system.cpu.itb.walker.walkRequestOrigin_Completed::Inst            0                       # Table walker requests started/completed, data/inst
system.cpu.itb.walker.walkRequestOrigin_Completed::total            0                       # Table walker requests started/completed, data/inst
system.cpu.itb.walker.walkRequestOrigin::total            0                       # Table walker requests started/completed, data/inst
system.cpu.itb.walker.walks                         0                       # Table walker walks requested
system.cpu.itb.write_accesses                       0                       # DTB write accesses
system.cpu.itb.write_hits                           0                       # DTB write hits
system.cpu.itb.write_misses                         0                       # DTB write misses
system.cpu.numCycles                        200346530                       # number of cpu cycles simulated
system.cpu.numFetchSuspends                         0                       # Number of times Execute suspended instruction fetching
system.cpu.numWorkItemsCompleted                    0                       # number of work items this cpu completed
system.cpu.numWorkItemsStarted                      0                       # number of work items this cpu started
system.cpu.op_class_0::No_OpClass                   0      0.00%      0.00% # Class of committed instruction
system.cpu.op_class_0::IntAlu                50006957     50.01%     50.01% # Class of committed instruction
system.cpu.op_class_0::IntMult                     85      0.00%     50.01% # Class of committed instruction
system.cpu.op_class_0::IntDiv                       0      0.00%     50.01% # Class of committed instruction
system.cpu.op_class_0::FloatAdd                     0      0.00%     50.01% # Class of committed instruction
system.cpu.op_class_0::FloatCmp                     0      0.00%     50.01% # Class of committed instruction
system.cpu.op_class_0::FloatCvt                     0      0.00%     50.01% # Class of committed instruction
system.cpu.op_class_0::FloatMult                    0      0.00%     50.01% # Class of committed instruction
system.cpu.op_class_0::FloatMultAcc                 0      0.00%     50.01% # Class of committed instruction
system.cpu.op_class_0::FloatDiv                     0      0.00%     50.01% # Class of committed instruction
system.cpu.op_class_0::FloatMisc                    0      0.00%     50.01% # Class of committed instruction
system.cpu.op_class_0::FloatSqrt                    0      0.00%     50.01% # Class of committed instruction
system.cpu.op_class_0::SimdAdd                      0      0.00%     50.01% # Class of committed instruction
system.cpu.op_class_0::SimdAddAcc                   0      0.00%     50.01% # Class of committed instruction
system.cpu.op_class_0::SimdAlu                      0      0.00%     50.01% # Class of committed instruction
system.cpu.op_class_0::SimdCmp                      0      0.00%     50.01% # Class of committed instruction
system.cpu.op_class_0::SimdCvt                      0      0.00%     50.01% # Class of committed instruction
system.cpu.op_class_0::SimdMisc                     0      0.00%     50.01% # Class of committed instruction
system.cpu.op_class_0::SimdMult                     0      0.00%     50.01% # Class of committed instruction
system.cpu.op_class_0::SimdMultAcc                  0      0.00%     50.01% # Class of committed instruction
system.cpu.op_class_0::SimdShift                    0      0.00%     50.01% # Class of committed instruction
system.cpu.op_class_0::SimdShiftAcc                 0      0.00%     50.01% # Class of committed instruction
system.cpu.op_class_0::SimdDiv                      0      0.00%     50.01% # Class of committed instruction
system.cpu.op_class_0::SimdSqrt                     0      0.00%     50.01% # Class of committed instruction
system.cpu.op_class_0::SimdFloatAdd                 0      0.00%     50.01% # Class of committed instruction
system.cpu.op_class_0::SimdFloatAlu                 0      0.00%     50.01% # Class of committed instruction
system.cpu.op_class_0::SimdFloatCmp                 2      0.00%     50.01% # Class of committed instruction
system.cpu.op_class_0::SimdFloatCvt                 0      0.00%     50.01% # Class of committed instruction
system.cpu.op_class_0::SimdFloatDiv                 0      0.00%     50.01% # Class of committed instruction
system.cpu.op_class_0::SimdFloatMisc               22      0.00%     50.01% # Class of committed instruction
system.cpu.op_class_0::SimdFloatMult                0      0.00%     50.01% # Class of committed instruction
system.cpu.op_class_0::SimdFloatMultAcc             0      0.00%     50.01% # Class of committed instruction
system.cpu.op_class_0::SimdFloatSqrt                0      0.00%     50.01% # Class of committed instruction
system.cpu.op_class_0::SimdReduceAdd                0      0.00%     50.01% # Class of committed instruction
system.cpu.op_class_0::SimdReduceAlu                0      0.00%     50.01% # Class of committed instruction
system.cpu.op_class_0::SimdReduceCmp                0      0.00%     50.01% # Class of committed instruction
system.cpu.op_class_0::SimdFloatReduceAdd            0      0.00%     50.01% # Class of committed instruction
system.cpu.op_class_0::SimdFloatReduceCmp            0      0.00%     50.01% # Class of committed instruction
system.cpu.op_class_0::SimdAes                      0      0.00%     50.01% # Class of committed instruction
system.cpu.op_class_0::SimdAesMix                   0      0.00%     50.01% # Class of committed instruction
system.cpu.op_class_0::SimdSha1Hash                 0      0.00%     50.01% # Class of committed instruction
system.cpu.op_class_0::SimdSha1Hash2                0      0.00%     50.01% # Class of committed instruction
system.cpu.op_class_0::SimdSha256Hash               0      0.00%     50.01% # Class of committed instruction
system.cpu.op_class_0::SimdSha256Hash2              0      0.00%     50.01% # Class of committed instruction
system.cpu.op_class_0::SimdShaSigma2                0      0.00%     50.01% # Class of committed instruction
system.cpu.op_class_0::SimdShaSigma3                0      0.00%     50.01% # Class of committed instruction
system.cpu.op_class_0::SimdPredAlu                  0      0.00%     50.01% # Class of committed instruction
system.cpu.op_class_0::MemRead               36900878     36.90%     86.90% # Class of committed instruction
system.cpu.op_class_0::MemWrite              13095693     13.10%    100.00% # Class of committed instruction
system.cpu.op_class_0::FloatMemRead                 0      0.00%    100.00% # Class of committed instruction
system.cpu.op_class_0::FloatMemWrite                0      0.00%    100.00% # Class of committed instruction
system.cpu.op_class_0::IprAccess                    0      0.00%    100.00% # Class of committed instruction
system.cpu.op_class_0::InstPrefetch                 0      0.00%    100.00% # Class of committed instruction
system.cpu.op_class_0::total                100003637                       # Class of committed instruction
system.cpu.tickCycles                       114890687                       # Number of cycles that the object actually ticked
system.cpu.workload.numSyscalls                    18                       # Number of system calls
system.membus.snoop_filter.hit_multi_requests            0                       # Number of requests hitting in the snoop filter with multiple (>1) holders of the requested data.
system.membus.snoop_filter.hit_multi_snoops            0                       # Number of snoops hitting in the snoop filter with multiple (>1) holders of the requested data.
system.membus.snoop_filter.hit_single_requests       740008                       # Number of requests hitting in the snoop filter with a single holder of the requested data.
system.membus.snoop_filter.hit_single_snoops            0                       # Number of snoops hitting in the snoop filter with a single holder of the requested data.
system.membus.snoop_filter.tot_requests       1484352                       # Total number of requests made to the snoop filter.
system.membus.snoop_filter.tot_snoops               0                       # Total number of snoops made to the snoop filter.
system.tol2bus.snoop_filter.hit_multi_requests           46                       # Number of requests hitting in the snoop filter with multiple (>1) holders of the requested data.
system.tol2bus.snoop_filter.hit_multi_snoops            1                       # Number of snoops hitting in the snoop filter with multiple (>1) holders of the requested data.
system.tol2bus.snoop_filter.hit_single_requests       742190                       # Number of requests hitting in the snoop filter with a single holder of the requested data.
system.tol2bus.snoop_filter.hit_single_snoops       737272                       # Number of snoops hitting in the snoop filter with a single holder of the requested data.
system.tol2bus.snoop_filter.tot_requests      1486665                       # Total number of requests made to the snoop filter.
system.tol2bus.snoop_filter.tot_snoops         737273                       # Total number of snoops made to the snoop filter.
system.membus.pwrStateResidencyTicks::UNDEFINED 200346530000                       # Cumulative time (in ticks) in various power states
system.membus.trans_dist::ReadResp                412                       # Transaction distribution
system.membus.trans_dist::WritebackDirty       739850                       # Transaction distribution
system.membus.trans_dist::CleanEvict              158                       # Transaction distribution
system.membus.trans_dist::ReadExReq            743932                       # Transaction distribution
system.membus.trans_dist::ReadExResp           743932                       # Transaction distribution
system.membus.trans_dist::ReadSharedReq           412                       # Transaction distribution
system.membus.pkt_count_system.l2.mem_side::system.mem_ctrls.port      2228696                       # Packet count per connected master and slave (bytes)
system.membus.pkt_count::total                2228696                       # Packet count per connected master and slave (bytes)
system.membus.pkt_size_system.l2.mem_side::system.mem_ctrls.port    189976832                       # Cumulative packet size per connected master and slave (bytes)
system.membus.pkt_size::total               189976832                       # Cumulative packet size per connected master and slave (bytes)
system.membus.snoops                                0                       # Total snoops (count)
system.membus.snoopTraffic                          0                       # Total snoop traffic (bytes)
system.membus.snoop_fanout::samples            744344                       # Request fanout histogram
system.membus.snoop_fanout::mean                    0                       # Request fanout histogram
system.membus.snoop_fanout::stdev                   0                       # Request fanout histogram
system.membus.snoop_fanout::underflows              0      0.00%      0.00% # Request fanout histogram
system.membus.snoop_fanout::0                  744344    100.00%    100.00% # Request fanout histogram
system.membus.snoop_fanout::1                       0      0.00%    100.00% # Request fanout histogram
system.membus.snoop_fanout::overflows               0      0.00%    100.00% # Request fanout histogram
system.membus.snoop_fanout::min_value               0                       # Request fanout histogram
system.membus.snoop_fanout::max_value               0                       # Request fanout histogram
system.membus.snoop_fanout::total              744344                       # Request fanout histogram
system.membus.respLayer1.occupancy         6908796750                       # Layer occupancy (ticks)
system.membus.respLayer1.utilization              3.4                       # Layer utilization (%)
system.membus.reqLayer0.occupancy          7403152000                       # Layer occupancy (ticks)
system.membus.reqLayer0.utilization               3.7                       # Layer utilization (%)
system.tol2bus.pwrStateResidencyTicks::UNDEFINED 200346530000                       # Cumulative time (in ticks) in various power states
system.tol2bus.trans_dist::ReadResp               544                       # Transaction distribution
system.tol2bus.trans_dist::WritebackDirty      1481750                       # Transaction distribution
system.tol2bus.trans_dist::WritebackClean          207                       # Transaction distribution
system.tol2bus.trans_dist::CleanEvict          737508                       # Transaction distribution
system.tol2bus.trans_dist::ReadExReq           743932                       # Transaction distribution
system.tol2bus.trans_dist::ReadExResp          743932                       # Transaction distribution
system.tol2bus.trans_dist::ReadCleanReq           446                       # Transaction distribution
system.tol2bus.trans_dist::ReadSharedReq           98                       # Transaction distribution
system.tol2bus.pkt_count_system.cpu.icache.mem_side::system.l2.cpu_side         1099                       # Packet count per connected master and slave (bytes)
system.tol2bus.pkt_count_system.cpu.dcache.mem_side::system.l2.cpu_side      2230042                       # Packet count per connected master and slave (bytes)
system.tol2bus.pkt_count::total               2231141                       # Packet count per connected master and slave (bytes)
system.tol2bus.pkt_size_system.cpu.icache.mem_side::system.l2.cpu_side        83584                       # Cumulative packet size per connected master and slave (bytes)
system.tol2bus.pkt_size_system.cpu.dcache.mem_side::system.l2.cpu_side    190199040                       # Cumulative packet size per connected master and slave (bytes)
system.tol2bus.pkt_size::total              190282624                       # Cumulative packet size per connected master and slave (bytes)
system.tol2bus.snoops                         1477276                       # Total snoops (count)
system.tol2bus.snoopTraffic                  94700800                       # Total snoop traffic (bytes)
system.tol2bus.snoop_fanout::samples          2221752                       # Request fanout histogram
system.tol2bus.snoop_fanout::mean            0.331865                       # Request fanout histogram
system.tol2bus.snoop_fanout::stdev           0.470884                       # Request fanout histogram
system.tol2bus.snoop_fanout::underflows             0      0.00%      0.00% # Request fanout histogram
system.tol2bus.snoop_fanout::0                1484432     66.81%     66.81% # Request fanout histogram
system.tol2bus.snoop_fanout::1                 737319     33.19%    100.00% # Request fanout histogram
system.tol2bus.snoop_fanout::2                      1      0.00%    100.00% # Request fanout histogram
system.tol2bus.snoop_fanout::overflows              0      0.00%    100.00% # Request fanout histogram
system.tol2bus.snoop_fanout::min_value              0                       # Request fanout histogram
system.tol2bus.snoop_fanout::max_value              2                       # Request fanout histogram
system.tol2bus.snoop_fanout::total            2221752                       # Request fanout histogram
system.tol2bus.reqLayer0.occupancy         4455093000                       # Layer occupancy (ticks)
system.tol2bus.reqLayer0.utilization              2.2                       # Layer utilization (%)
system.tol2bus.respLayer1.occupancy        3720152997                       # Layer occupancy (ticks)
system.tol2bus.respLayer1.utilization             1.9                       # Layer utilization (%)
system.tol2bus.respLayer0.occupancy           2230000                       # Layer occupancy (ticks)
system.tol2bus.respLayer0.utilization             0.0                       # Layer utilization (%)
system.voltage_domain.voltage                       1                       # Voltage in Volts
system.clk_domain.clock                          1000                       # Clock period in ticks
system.l2.pwrStateResidencyTicks::UNDEFINED 200346530000                       # Cumulative time (in ticks) in various power states
system.l2.demand_hits::.cpu.inst                  112                       # number of demand (read+write) hits
system.l2.demand_hits::.cpu.data                   17                       # number of demand (read+write) hits
system.l2.demand_hits::total                      129                       # number of demand (read+write) hits
system.l2.overall_hits::.cpu.inst                 112                       # number of overall hits
system.l2.overall_hits::.cpu.data                  17                       # number of overall hits
system.l2.overall_hits::total                     129                       # number of overall hits
system.l2.demand_misses::.cpu.inst                334                       # number of demand (read+write) misses
system.l2.demand_misses::.cpu.data             744013                       # number of demand (read+write) misses
system.l2.demand_misses::total                 744347                       # number of demand (read+write) misses
system.l2.overall_misses::.cpu.inst               334                       # number of overall misses
system.l2.overall_misses::.cpu.data            744013                       # number of overall misses
system.l2.overall_misses::total                744347                       # number of overall misses
system.l2.demand_miss_latency::.cpu.inst     34849000                       # number of demand (read+write) miss cycles
system.l2.demand_miss_latency::.cpu.data  82154766000                       # number of demand (read+write) miss cycles
system.l2.demand_miss_latency::total      82189615000                       # number of demand (read+write) miss cycles
system.l2.overall_miss_latency::.cpu.inst     34849000                       # number of overall miss cycles
system.l2.overall_miss_latency::.cpu.data  82154766000                       # number of overall miss cycles
system.l2.overall_miss_latency::total     82189615000                       # number of overall miss cycles
system.l2.demand_accesses::.cpu.inst              446                       # number of demand (read+write) accesses
system.l2.demand_accesses::.cpu.data           744030                       # number of demand (read+write) accesses
system.l2.demand_accesses::total               744476                       # number of demand (read+write) accesses
system.l2.overall_accesses::.cpu.inst             446                       # number of overall (read+write) accesses
system.l2.overall_accesses::.cpu.data          744030                       # number of overall (read+write) accesses
system.l2.overall_accesses::total              744476                       # number of overall (read+write) accesses
system.l2.demand_miss_rate::.cpu.inst        0.748879                       # miss rate for demand accesses
system.l2.demand_miss_rate::.cpu.data        0.999977                       # miss rate for demand accesses
system.l2.demand_miss_rate::total            0.999827                       # miss rate for demand accesses
system.l2.overall_miss_rate::.cpu.inst       0.748879                       # miss rate for overall accesses
system.l2.overall_miss_rate::.cpu.data       0.999977                       # miss rate for overall accesses
system.l2.overall_miss_rate::total           0.999827                       # miss rate for overall accesses
system.l2.demand_avg_miss_latency::.cpu.inst 104338.323353                       # average overall miss latency
system.l2.demand_avg_miss_latency::.cpu.data 110421.143179                       # average overall miss latency
system.l2.demand_avg_miss_latency::total 110418.413724                       # average overall miss latency
system.l2.overall_avg_miss_latency::.cpu.inst 104338.323353                       # average overall miss latency
system.l2.overall_avg_miss_latency::.cpu.data 110421.143179                       # average overall miss latency
system.l2.overall_avg_miss_latency::total 110418.413724                       # average overall miss latency
system.l2.blocked_cycles::no_mshrs                  0                       # number of cycles access was blocked
system.l2.blocked_cycles::no_targets                0                       # number of cycles access was blocked
system.l2.blocked::no_mshrs                         0                       # number of cycles access was blocked
system.l2.blocked::no_targets                       0                       # number of cycles access was blocked
system.l2.avg_blocked_cycles::no_mshrs            nan                       # average number of cycles each access was blocked
system.l2.avg_blocked_cycles::no_targets          nan                       # average number of cycles each access was blocked
system.l2.writebacks::.writebacks              739850                       # number of writebacks
system.l2.writebacks::total                    739850                       # number of writebacks
system.l2.demand_mshr_hits::.cpu.data               3                       # number of demand (read+write) MSHR hits
system.l2.demand_mshr_hits::total                   3                       # number of demand (read+write) MSHR hits
system.l2.overall_mshr_hits::.cpu.data              3                       # number of overall MSHR hits
system.l2.overall_mshr_hits::total                  3                       # number of overall MSHR hits
system.l2.demand_mshr_misses::.cpu.inst           334                       # number of demand (read+write) MSHR misses
system.l2.demand_mshr_misses::.cpu.data        744010                       # number of demand (read+write) MSHR misses
system.l2.demand_mshr_misses::total            744344                       # number of demand (read+write) MSHR misses
system.l2.overall_mshr_misses::.cpu.inst          334                       # number of overall MSHR misses
system.l2.overall_mshr_misses::.cpu.data       744010                       # number of overall MSHR misses
system.l2.overall_mshr_misses::total           744344                       # number of overall MSHR misses
system.l2.demand_mshr_miss_latency::.cpu.inst     28169000                       # number of demand (read+write) MSHR miss cycles
system.l2.demand_mshr_miss_latency::.cpu.data  67274300000                       # number of demand (read+write) MSHR miss cycles
system.l2.demand_mshr_miss_latency::total  67302469000                       # number of demand (read+write) MSHR miss cycles
system.l2.overall_mshr_miss_latency::.cpu.inst     28169000                       # number of overall MSHR miss cycles
system.l2.overall_mshr_miss_latency::.cpu.data  67274300000                       # number of overall MSHR miss cycles
system.l2.overall_mshr_miss_latency::total  67302469000                       # number of overall MSHR miss cycles
system.l2.demand_mshr_miss_rate::.cpu.inst     0.748879                       # mshr miss rate for demand accesses
system.l2.demand_mshr_miss_rate::.cpu.data     0.999973                       # mshr miss rate for demand accesses
system.l2.demand_mshr_miss_rate::total       0.999823                       # mshr miss rate for demand accesses
system.l2.overall_mshr_miss_rate::.cpu.inst     0.748879                       # mshr miss rate for overall accesses
system.l2.overall_mshr_miss_rate::.cpu.data     0.999973                       # mshr miss rate for overall accesses
system.l2.overall_mshr_miss_rate::total      0.999823                       # mshr miss rate for overall accesses
system.l2.demand_avg_mshr_miss_latency::.cpu.inst 84338.323353                       # average overall mshr miss latency
system.l2.demand_avg_mshr_miss_latency::.cpu.data 90421.230897                       # average overall mshr miss latency
system.l2.demand_avg_mshr_miss_latency::total 90418.501392                       # average overall mshr miss latency
system.l2.overall_avg_mshr_miss_latency::.cpu.inst 84338.323353                       # average overall mshr miss latency
system.l2.overall_avg_mshr_miss_latency::.cpu.data 90421.230897                       # average overall mshr miss latency
system.l2.overall_avg_mshr_miss_latency::total 90418.501392                       # average overall mshr miss latency
system.l2.replacements                        1477276                       # number of replacements
system.l2.WritebackDirty_hits::.writebacks       741900                       # number of WritebackDirty hits
system.l2.WritebackDirty_hits::total           741900                       # number of WritebackDirty hits
system.l2.WritebackDirty_accesses::.writebacks       741900                       # number of WritebackDirty accesses(hits+misses)
system.l2.WritebackDirty_accesses::total       741900                       # number of WritebackDirty accesses(hits+misses)
system.l2.WritebackClean_hits::.writebacks          178                       # number of WritebackClean hits
system.l2.WritebackClean_hits::total              178                       # number of WritebackClean hits
system.l2.WritebackClean_accesses::.writebacks          178                       # number of WritebackClean accesses(hits+misses)
system.l2.WritebackClean_accesses::total          178                       # number of WritebackClean accesses(hits+misses)
system.l2.CleanEvict_mshr_misses::.writebacks            5                       # number of CleanEvict MSHR misses
system.l2.CleanEvict_mshr_misses::total             5                       # number of CleanEvict MSHR misses
system.l2.CleanEvict_mshr_miss_rate::.writebacks          inf                       # mshr miss rate for CleanEvict accesses
system.l2.CleanEvict_mshr_miss_rate::total          inf                       # mshr miss rate for CleanEvict accesses
system.l2.ReadExReq_misses::.cpu.data          743932                       # number of ReadExReq misses
system.l2.ReadExReq_misses::total              743932                       # number of ReadExReq misses
system.l2.ReadExReq_miss_latency::.cpu.data  82146137000                       # number of ReadExReq miss cycles
system.l2.ReadExReq_miss_latency::total   82146137000                       # number of ReadExReq miss cycles
system.l2.ReadExReq_accesses::.cpu.data        743932                       # number of ReadExReq accesses(hits+misses)
system.l2.ReadExReq_accesses::total            743932                       # number of ReadExReq accesses(hits+misses)
system.l2.ReadExReq_miss_rate::.cpu.data            1                       # miss rate for ReadExReq accesses
system.l2.ReadExReq_miss_rate::total                1                       # miss rate for ReadExReq accesses
system.l2.ReadExReq_avg_miss_latency::.cpu.data 110421.566756                       # average ReadExReq miss latency
system.l2.ReadExReq_avg_miss_latency::total 110421.566756                       # average ReadExReq miss latency
system.l2.ReadExReq_mshr_misses::.cpu.data       743932                       # number of ReadExReq MSHR misses
system.l2.ReadExReq_mshr_misses::total         743932                       # number of ReadExReq MSHR misses
system.l2.ReadExReq_mshr_miss_latency::.cpu.data  67267497000                       # number of ReadExReq MSHR miss cycles
system.l2.ReadExReq_mshr_miss_latency::total  67267497000                       # number of ReadExReq MSHR miss cycles
system.l2.ReadExReq_mshr_miss_rate::.cpu.data            1                       # mshr miss rate for ReadExReq accesses
system.l2.ReadExReq_mshr_miss_rate::total            1                       # mshr miss rate for ReadExReq accesses
system.l2.ReadExReq_avg_mshr_miss_latency::.cpu.data 90421.566756                       # average ReadExReq mshr miss latency
system.l2.ReadExReq_avg_mshr_miss_latency::total 90421.566756                       # average ReadExReq mshr miss latency
system.l2.ReadCleanReq_hits::.cpu.inst            112                       # number of ReadCleanReq hits
system.l2.ReadCleanReq_hits::total                112                       # number of ReadCleanReq hits
system.l2.ReadCleanReq_misses::.cpu.inst          334                       # number of ReadCleanReq misses
system.l2.ReadCleanReq_misses::total              334                       # number of ReadCleanReq misses
system.l2.ReadCleanReq_miss_latency::.cpu.inst     34849000                       # number of ReadCleanReq miss cycles
system.l2.ReadCleanReq_miss_latency::total     34849000                       # number of ReadCleanReq miss cycles
system.l2.ReadCleanReq_accesses::.cpu.inst          446                       # number of ReadCleanReq accesses(hits+misses)
system.l2.ReadCleanReq_accesses::total            446                       # number of ReadCleanReq accesses(hits+misses)
system.l2.ReadCleanReq_miss_rate::.cpu.inst     0.748879                       # miss rate for ReadCleanReq accesses
system.l2.ReadCleanReq_miss_rate::total      0.748879                       # miss rate for ReadCleanReq accesses
system.l2.ReadCleanReq_avg_miss_latency::.cpu.inst 104338.323353                       # average ReadCleanReq miss latency
system.l2.ReadCleanReq_avg_miss_latency::total 104338.323353                       # average ReadCleanReq miss latency
system.l2.ReadCleanReq_mshr_misses::.cpu.inst          334                       # number of ReadCleanReq MSHR misses
system.l2.ReadCleanReq_mshr_misses::total          334                       # number of ReadCleanReq MSHR misses
system.l2.ReadCleanReq_mshr_miss_latency::.cpu.inst     28169000                       # number of ReadCleanReq MSHR miss cycles
system.l2.ReadCleanReq_mshr_miss_latency::total     28169000                       # number of ReadCleanReq MSHR miss cycles
system.l2.ReadCleanReq_mshr_miss_rate::.cpu.inst     0.748879                       # mshr miss rate for ReadCleanReq accesses
system.l2.ReadCleanReq_mshr_miss_rate::total     0.748879                       # mshr miss rate for ReadCleanReq accesses
system.l2.ReadCleanReq_avg_mshr_miss_latency::.cpu.inst 84338.323353                       # average ReadCleanReq mshr miss latency
system.l2.ReadCleanReq_avg_mshr_miss_latency::total 84338.323353                       # average ReadCleanReq mshr miss latency
system.l2.ReadSharedReq_hits::.cpu.data            17                       # number of ReadSharedReq hits
system.l2.ReadSharedReq_hits::total                17                       # number of ReadSharedReq hits
system.l2.ReadSharedReq_misses::.cpu.data           81                       # number of ReadSharedReq misses
system.l2.ReadSharedReq_misses::total              81                       # number of ReadSharedReq misses
system.l2.ReadSharedReq_miss_latency::.cpu.data      8629000                       # number of ReadSharedReq miss cycles
system.l2.ReadSharedReq_miss_latency::total      8629000                       # number of ReadSharedReq miss cycles
system.l2.ReadSharedReq_accesses::.cpu.data           98                       # number of ReadSharedReq accesses(hits+misses)
system.l2.ReadSharedReq_accesses::total            98                       # number of ReadSharedReq accesses(hits+misses)
system.l2.ReadSharedReq_miss_rate::.cpu.data     0.826531                       # miss rate for ReadSharedReq accesses
system.l2.ReadSharedReq_miss_rate::total     0.826531                       # miss rate for ReadSharedReq accesses
system.l2.ReadSharedReq_avg_miss_latency::.cpu.data 106530.864198                       # average ReadSharedReq miss latency
system.l2.ReadSharedReq_avg_miss_latency::total 106530.864198                       # average ReadSharedReq miss latency
system.l2.ReadSharedReq_mshr_hits::.cpu.data            3                       # number of ReadSharedReq MSHR hits
system.l2.ReadSharedReq_mshr_hits::total            3                       # number of ReadSharedReq MSHR hits
system.l2.ReadSharedReq_mshr_misses::.cpu.data           78                       # number of ReadSharedReq MSHR misses
system.l2.ReadSharedReq_mshr_misses::total           78                       # number of ReadSharedReq MSHR misses
system.l2.ReadSharedReq_mshr_miss_latency::.cpu.data      6803000                       # number of ReadSharedReq MSHR miss cycles
system.l2.ReadSharedReq_mshr_miss_latency::total      6803000                       # number of ReadSharedReq MSHR miss cycles
system.l2.ReadSharedReq_mshr_miss_rate::.cpu.data     0.795918                       # mshr miss rate for ReadSharedReq accesses
system.l2.ReadSharedReq_mshr_miss_rate::total     0.795918                       # mshr miss rate for ReadSharedReq accesses
system.l2.ReadSharedReq_avg_mshr_miss_latency::.cpu.data 87217.948718                       # average ReadSharedReq mshr miss latency
system.l2.ReadSharedReq_avg_mshr_miss_latency::total 87217.948718                       # average ReadSharedReq mshr miss latency
system.l2.tags.pwrStateResidencyTicks::UNDEFINED 200346530000                       # Cumulative time (in ticks) in various power states
system.l2.tags.tagsinuse                  4085.367290                       # Cycle average of tags in use
system.l2.tags.total_refs                     1486611                       # Total number of references to valid blocks.
system.l2.tags.sampled_refs                   1481372                       # Sample count of references to valid blocks.
system.l2.tags.avg_refs                      1.003537                       # Average number of references to valid blocks.
system.l2.tags.warmup_cycle                     92000                       # Cycle when the warmup percentage was hit.
system.l2.tags.occ_blocks::.writebacks    2025.912849                       # Average occupied blocks per requestor
system.l2.tags.occ_blocks::.cpu.inst         1.346793                       # Average occupied blocks per requestor
system.l2.tags.occ_blocks::.cpu.data      2058.107648                       # Average occupied blocks per requestor
system.l2.tags.occ_percent::.writebacks      0.494608                       # Average percentage of cache occupancy
system.l2.tags.occ_percent::.cpu.inst        0.000329                       # Average percentage of cache occupancy
system.l2.tags.occ_percent::.cpu.data        0.502468                       # Average percentage of cache occupancy
system.l2.tags.occ_percent::total            0.997404                       # Average percentage of cache occupancy
system.l2.tags.occ_task_id_blocks::1024          4096                       # Occupied blocks per task id
system.l2.tags.age_task_id_blocks_1024::0           74                       # Occupied blocks per task id
system.l2.tags.age_task_id_blocks_1024::1          664                       # Occupied blocks per task id
system.l2.tags.age_task_id_blocks_1024::2         3357                       # Occupied blocks per task id
system.l2.tags.age_task_id_blocks_1024::3            1                       # Occupied blocks per task id
system.l2.tags.occ_task_id_percent::1024            1                       # Percentage of cache occupancy per task id
system.l2.tags.tag_accesses                   4454610                       # Number of tag accesses
system.l2.tags.data_accesses                  4454610                       # Number of data accesses
system.cpu_voltage_domain.voltage                   1                       # Voltage in Volts
system.mem_ctrls.pwrStateResidencyTicks::UNDEFINED 200346530000                       # Cumulative time (in ticks) in various power states
system.mem_ctrls.bytes_read::.cpu.inst          42752                       # Number of bytes read from this memory
system.mem_ctrls.bytes_read::.cpu.data       95233280                       # Number of bytes read from this memory
system.mem_ctrls.bytes_read::total           95276032                       # Number of bytes read from this memory
system.mem_ctrls.bytes_inst_read::.cpu.inst        42752                       # Number of instructions bytes read from this memory
system.mem_ctrls.bytes_inst_read::total         42752                       # Number of instructions bytes read from this memory
system.mem_ctrls.bytes_written::.writebacks     94700800                       # Number of bytes written to this memory
system.mem_ctrls.bytes_written::total        94700800                       # Number of bytes written to this memory
system.mem_ctrls.num_reads::.cpu.inst             334                       # Number of read requests responded to by this memory
system.mem_ctrls.num_reads::.cpu.data          744010                       # Number of read requests responded to by this memory
system.mem_ctrls.num_reads::total              744344                       # Number of read requests responded to by this memory
system.mem_ctrls.num_writes::.writebacks       739850                       # Number of write requests responded to by this memory
system.mem_ctrls.num_writes::total             739850                       # Number of write requests responded to by this memory
system.mem_ctrls.bw_read::.cpu.inst            213390                       # Total read bandwidth from this memory (bytes/s)
system.mem_ctrls.bw_read::.cpu.data         475342797                       # Total read bandwidth from this memory (bytes/s)
system.mem_ctrls.bw_read::total             475556188                       # Total read bandwidth from this memory (bytes/s)
system.mem_ctrls.bw_inst_read::.cpu.inst       213390                       # Instruction read bandwidth from this memory (bytes/s)
system.mem_ctrls.bw_inst_read::total           213390                       # Instruction read bandwidth from this memory (bytes/s)
system.mem_ctrls.bw_write::.writebacks      472685002                       # Write bandwidth from this memory (bytes/s)
system.mem_ctrls.bw_write::total            472685002                       # Write bandwidth from this memory (bytes/s)
system.mem_ctrls.bw_total::.writebacks      472685002                       # Total bandwidth to/from this memory (bytes/s)
system.mem_ctrls.bw_total::.cpu.inst           213390                       # Total bandwidth to/from this memory (bytes/s)
system.mem_ctrls.bw_total::.cpu.data        475342797                       # Total bandwidth to/from this memory (bytes/s)
system.mem_ctrls.bw_total::total            948241190                       # Total bandwidth to/from this memory (bytes/s)
system.mem_ctrls.avgPriority_.writebacks::samples   1479700.00                       # Average QoS priority value for accepted requests
system.mem_ctrls.avgPriority_.cpu.inst::samples       668.00                       # Average QoS priority value for accepted requests
system.mem_ctrls.avgPriority_.cpu.data::samples   1488020.00                       # Average QoS priority value for accepted requests
system.mem_ctrls.priorityMinLatency      0.000000018750                       # per QoS priority minimum request to response latency (s)
system.mem_ctrls.priorityMaxLatency      0.000570068500                       # per QoS priority maximum request to response latency (s)
system.mem_ctrls.numReadWriteTurnArounds        82307                       # Number of turnarounds from READ to WRITE
system.mem_ctrls.numWriteReadTurnArounds        82307                       # Number of turnarounds from WRITE to READ
system.mem_ctrls.numStayReadState             2963157                       # Number of times bus staying in READ state
system.mem_ctrls.numStayWriteState            1402640                       # Number of times bus staying in WRITE state
system.mem_ctrls.readReqs                      744344                       # Number of read requests accepted
system.mem_ctrls.writeReqs                     739850                       # Number of write requests accepted
system.mem_ctrls.readBursts                   1488688                       # Number of DRAM read bursts, including those serviced by the write queue
system.mem_ctrls.writeBursts                  1479700                       # Number of DRAM write bursts, including those merged in the write queue
system.mem_ctrls.servicedByWrQ                      0                       # Number of DRAM read bursts serviced by the write queue
system.mem_ctrls.mergedWrBursts                     0                       # Number of DRAM write bursts merged with an existing one
system.mem_ctrls.neitherReadNorWriteReqs            0                       # Number of requests that are neither read nor write
system.mem_ctrls.perBankRdBursts::0             93104                       # Per bank write bursts
system.mem_ctrls.perBankRdBursts::1             92960                       # Per bank write bursts
system.mem_ctrls.perBankRdBursts::2             93004                       # Per bank write bursts
system.mem_ctrls.perBankRdBursts::3             93004                       # Per bank write bursts
system.mem_ctrls.perBankRdBursts::4             93122                       # Per bank write bursts
system.mem_ctrls.perBankRdBursts::5             93082                       # Per bank write bursts
system.mem_ctrls.perBankRdBursts::6             93064                       # Per bank write bursts
system.mem_ctrls.perBankRdBursts::7             93082                       # Per bank write bursts
system.mem_ctrls.perBankRdBursts::8             93190                       # Per bank write bursts
system.mem_ctrls.perBankRdBursts::9             93082                       # Per bank write bursts
system.mem_ctrls.perBankRdBursts::10            93068                       # Per bank write bursts
system.mem_ctrls.perBankRdBursts::11            92964                       # Per bank write bursts
system.mem_ctrls.perBankRdBursts::12            93024                       # Per bank write bursts
system.mem_ctrls.perBankRdBursts::13            92962                       # Per bank write bursts
system.mem_ctrls.perBankRdBursts::14            92968                       # Per bank write bursts
system.mem_ctrls.perBankRdBursts::15            93008                       # Per bank write bursts
system.mem_ctrls.perBankWrBursts::0             92474                       # Per bank write bursts
system.mem_ctrls.perBankWrBursts::1             92442                       # Per bank write bursts
system.mem_ctrls.perBankWrBursts::2             92434                       # Per bank write bursts
system.mem_ctrls.perBankWrBursts::3             92486                       # Per bank write bursts
system.mem_ctrls.perBankWrBursts::4             92546                       # Per bank write bursts
system.mem_ctrls.perBankWrBursts::5             92544                       # Per bank write bursts
system.mem_ctrls.perBankWrBursts::6             92544                       # Per bank write bursts
system.mem_ctrls.perBankWrBursts::7             92544                       # Per bank write bursts
system.mem_ctrls.perBankWrBursts::8             92544                       # Per bank write bursts
system.mem_ctrls.perBankWrBursts::9             92544                       # Per bank write bursts
system.mem_ctrls.perBankWrBursts::10            92489                       # Per bank write bursts
system.mem_ctrls.perBankWrBursts::11            92416                       # Per bank write bursts
system.mem_ctrls.perBankWrBursts::12            92416                       # Per bank write bursts
system.mem_ctrls.perBankWrBursts::13            92416                       # Per bank write bursts
system.mem_ctrls.perBankWrBursts::14            92416                       # Per bank write bursts
system.mem_ctrls.perBankWrBursts::15            92422                       # Per bank write bursts
system.mem_ctrls.avgRdQLen                       2.00                       # Average read queue length when enqueuing
system.mem_ctrls.avgWrQLen                      25.19                       # Average write queue length when enqueuing
system.mem_ctrls.totQLat                  26508623500                       # Total ticks spent queuing
system.mem_ctrls.totBusLat                 7443440000                       # Total ticks spent in databus transfers
system.mem_ctrls.totMemAccLat             54421523500                       # Total ticks spent from burst creation until serviced by the DRAM
system.mem_ctrls.avgQLat                     17806.70                       # Average queueing delay per DRAM burst
system.mem_ctrls.avgBusLat                    5000.00                       # Average bus latency per DRAM burst
system.mem_ctrls.avgMemAccLat                36556.70                       # Average memory access latency per DRAM burst
system.mem_ctrls.numRdRetry                         0                       # Number of times read queue was full causing retry
system.mem_ctrls.numWrRetry                         0                       # Number of times write queue was full causing retry
system.mem_ctrls.readRowHits                  1320869                       # Number of row buffer hits during reads
system.mem_ctrls.writeRowHits                 1313984                       # Number of row buffer hits during writes
system.mem_ctrls.readRowHitRate                 88.73                       # Row buffer hit rate for reads
system.mem_ctrls.writeRowHitRate                88.80                       # Row buffer hit rate for writes
system.mem_ctrls.readPktSize::0                     0                       # Read request sizes (log2)
system.mem_ctrls.readPktSize::1                     0                       # Read request sizes (log2)
system.mem_ctrls.readPktSize::2                     0                       # Read request sizes (log2)
system.mem_ctrls.readPktSize::3                     0                       # Read request sizes (log2)
system.mem_ctrls.readPktSize::4                     0                       # Read request sizes (log2)
system.mem_ctrls.readPktSize::5                     0                       # Read request sizes (log2)
system.mem_ctrls.readPktSize::6               1488688                       # Read request sizes (log2)
system.mem_ctrls.writePktSize::0                    0                       # Write request sizes (log2)
system.mem_ctrls.writePktSize::1                    0                       # Write request sizes (log2)
system.mem_ctrls.writePktSize::2                    0                       # Write request sizes (log2)
system.mem_ctrls.writePktSize::3                    0                       # Write request sizes (log2)
system.mem_ctrls.writePktSize::4                    0                       # Write request sizes (log2)
system.mem_ctrls.writePktSize::5                    0                       # Write request sizes (log2)
system.mem_ctrls.writePktSize::6              1479700                       # Write request sizes (log2)
system.mem_ctrls.rdQLenPdf::0                  744286                       # What read queue length does an incoming req see
system.mem_ctrls.rdQLenPdf::1                  744292                       # What read queue length does an incoming req see
system.mem_ctrls.rdQLenPdf::2                      52                       # What read queue length does an incoming req see
system.mem_ctrls.rdQLenPdf::3                      46                       # What read queue length does an incoming req see
system.mem_ctrls.rdQLenPdf::4                       6                       # What read queue length does an incoming req see
system.mem_ctrls.rdQLenPdf::5                       6                       # What read queue length does an incoming req see
system.mem_ctrls.rdQLenPdf::6                       0                       # What read queue length does an incoming req see
system.mem_ctrls.rdQLenPdf::7                       0                       # What read queue length does an incoming req see
system.mem_ctrls.rdQLenPdf::8                       0                       # What read queue length does an incoming req see
system.mem_ctrls.rdQLenPdf::9                       0                       # What read queue length does an incoming req see
system.mem_ctrls.rdQLenPdf::10                      0                       # What read queue length does an incoming req see
system.mem_ctrls.rdQLenPdf::11                      0                       # What read queue length does an incoming req see
system.mem_ctrls.rdQLenPdf::12                      0                       # What read queue length does an incoming req see
system.mem_ctrls.rdQLenPdf::13                      0                       # What read queue length does an incoming req see
system.mem_ctrls.rdQLenPdf::14                      0                       # What read queue length does an incoming req see
system.mem_ctrls.rdQLenPdf::15                      0                       # What read queue length does an incoming req see
system.mem_ctrls.rdQLenPdf::16                      0                       # What read queue length does an incoming req see
system.mem_ctrls.rdQLenPdf::17                      0                       # What read queue length does an incoming req see
system.mem_ctrls.rdQLenPdf::18                      0                       # What read queue length does an incoming req see
system.mem_ctrls.rdQLenPdf::19                      0                       # What read queue length does an incoming req see
system.mem_ctrls.rdQLenPdf::20                      0                       # What read queue length does an incoming req see
system.mem_ctrls.rdQLenPdf::21                      0                       # What read queue length does an incoming req see
system.mem_ctrls.rdQLenPdf::22                      0                       # What read queue length does an incoming req see
system.mem_ctrls.rdQLenPdf::23                      0                       # What read queue length does an incoming req see
system.mem_ctrls.rdQLenPdf::24                      0                       # What read queue length does an incoming req see
system.mem_ctrls.rdQLenPdf::25                      0                       # What read queue length does an incoming req see
system.mem_ctrls.rdQLenPdf::26                      0                       # What read queue length does an incoming req see
system.mem_ctrls.rdQLenPdf::27                      0                       # What read queue length does an incoming req see
system.mem_ctrls.rdQLenPdf::28                      0                       # What read queue length does an incoming req see
system.mem_ctrls.rdQLenPdf::29                      0                       # What read queue length does an incoming req see
system.mem_ctrls.rdQLenPdf::30                      0                       # What read queue length does an incoming req see
system.mem_ctrls.rdQLenPdf::31                      0                       # What read queue length does an incoming req see
system.mem_ctrls.wrQLenPdf::0                       1                       # What write queue length does an incoming req see
system.mem_ctrls.wrQLenPdf::1                       1                       # What write queue length does an incoming req see
system.mem_ctrls.wrQLenPdf::2                       1                       # What write queue length does an incoming req see
system.mem_ctrls.wrQLenPdf::3                       1                       # What write queue length does an incoming req see
system.mem_ctrls.wrQLenPdf::4                       1                       # What write queue length does an incoming req see
system.mem_ctrls.wrQLenPdf::5                       1                       # What write queue length does an incoming req see
system.mem_ctrls.wrQLenPdf::6                       1                       # What write queue length does an incoming req see
system.mem_ctrls.wrQLenPdf::7                       1                       # What write queue length does an incoming req see
system.mem_ctrls.wrQLenPdf::8                       1                       # What write queue length does an incoming req see
system.mem_ctrls.wrQLenPdf::9                       1                       # What write queue length does an incoming req see
system.mem_ctrls.wrQLenPdf::10                      1                       # What write queue length does an incoming req see
system.mem_ctrls.wrQLenPdf::11                      1                       # What write queue length does an incoming req see
system.mem_ctrls.wrQLenPdf::12                      1                       # What write queue length does an incoming req see
system.mem_ctrls.wrQLenPdf::13                      1                       # What write queue length does an incoming req see
system.mem_ctrls.wrQLenPdf::14                      1                       # What write queue length does an incoming req see
system.mem_ctrls.wrQLenPdf::15                  80122                       # What write queue length does an incoming req see
system.mem_ctrls.wrQLenPdf::16                  81383                       # What write queue length does an incoming req see
system.mem_ctrls.wrQLenPdf::17                  82869                       # What write queue length does an incoming req see
system.mem_ctrls.wrQLenPdf::18                  82308                       # What write queue length does an incoming req see
system.mem_ctrls.wrQLenPdf::19                  82308                       # What write queue length does an incoming req see
system.mem_ctrls.wrQLenPdf::20                  82308                       # What write queue length does an incoming req see
system.mem_ctrls.wrQLenPdf::21                  82308                       # What write queue length does an incoming req see
system.mem_ctrls.wrQLenPdf::22                  82308                       # What write queue length does an incoming req see
system.mem_ctrls.wrQLenPdf::23                  82307                       # What write queue length does an incoming req see
system.mem_ctrls.wrQLenPdf::24                  82307                       # What write queue length does an incoming req see
system.mem_ctrls.wrQLenPdf::25                  82307                       # What write queue length does an incoming req see
system.mem_ctrls.wrQLenPdf::26                  82307                       # What write queue length does an incoming req see
system.mem_ctrls.wrQLenPdf::27                  82307                       # What write queue length does an incoming req see
system.mem_ctrls.wrQLenPdf::28                  82307                       # What write queue length does an incoming req see
system.mem_ctrls.wrQLenPdf::29                  82307                       # What write queue length does an incoming req see
system.mem_ctrls.wrQLenPdf::30                  82307                       # What write queue length does an incoming req see
system.mem_ctrls.wrQLenPdf::31                  82307                       # What write queue length does an incoming req see
system.mem_ctrls.wrQLenPdf::32                  82307                       # What write queue length does an incoming req see
system.mem_ctrls.wrQLenPdf::33                    701                       # What write queue length does an incoming req see
system.mem_ctrls.wrQLenPdf::34                      0                       # What write queue length does an incoming req see
system.mem_ctrls.wrQLenPdf::35                      0                       # What write queue length does an incoming req see
system.mem_ctrls.wrQLenPdf::36                      0                       # What write queue length does an incoming req see
system.mem_ctrls.wrQLenPdf::37                      0                       # What write queue length does an incoming req see
system.mem_ctrls.wrQLenPdf::38                      0                       # What write queue length does an incoming req see
system.mem_ctrls.wrQLenPdf::39                      0                       # What write queue length does an incoming req see
system.mem_ctrls.wrQLenPdf::40                      0                       # What write queue length does an incoming req see
system.mem_ctrls.wrQLenPdf::41                      0                       # What write queue length does an incoming req see
system.mem_ctrls.wrQLenPdf::42                      0                       # What write queue length does an incoming req see
system.mem_ctrls.wrQLenPdf::43                      0                       # What write queue length does an incoming req see
system.mem_ctrls.wrQLenPdf::44                      0                       # What write queue length does an incoming req see
system.mem_ctrls.wrQLenPdf::45                      0                       # What write queue length does an incoming req see
system.mem_ctrls.wrQLenPdf::46                      0                       # What write queue length does an incoming req see
system.mem_ctrls.wrQLenPdf::47                      0                       # What write queue length does an incoming req see
system.mem_ctrls.wrQLenPdf::48                      0                       # What write queue length does an incoming req see
system.mem_ctrls.wrQLenPdf::49                      0                       # What write queue length does an incoming req see
system.mem_ctrls.wrQLenPdf::50                      0                       # What write queue length does an incoming req see
system.mem_ctrls.wrQLenPdf::51                      0                       # What write queue length does an incoming req see
system.mem_ctrls.wrQLenPdf::52                      0                       # What write queue length does an incoming req see
system.mem_ctrls.wrQLenPdf::53                      0                       # What write queue length does an incoming req see
system.mem_ctrls.wrQLenPdf::54                      0                       # What write queue length does an incoming req see
system.mem_ctrls.wrQLenPdf::55                      0                       # What write queue length does an incoming req see
system.mem_ctrls.wrQLenPdf::56                      0                       # What write queue length does an incoming req see
system.mem_ctrls.wrQLenPdf::57                      0                       # What write queue length does an incoming req see
system.mem_ctrls.wrQLenPdf::58                      0                       # What write queue length does an incoming req see
system.mem_ctrls.wrQLenPdf::59                      0                       # What write queue length does an incoming req see
system.mem_ctrls.wrQLenPdf::60                      0                       # What write queue length does an incoming req see
system.mem_ctrls.wrQLenPdf::61                      0                       # What write queue length does an incoming req see
system.mem_ctrls.wrQLenPdf::62                      0                       # What write queue length does an incoming req see
system.mem_ctrls.wrQLenPdf::63                      0                       # What write queue length does an incoming req see
system.mem_ctrls.bytesPerActivate::samples       333510                       # Bytes accessed per row activation
system.mem_ctrls.bytesPerActivate::mean    569.622452                       # Bytes accessed per row activation
system.mem_ctrls.bytesPerActivate::gmean   381.545324                       # Bytes accessed per row activation
system.mem_ctrls.bytesPerActivate::stdev   414.409321                       # Bytes accessed per row activation
system.mem_ctrls.bytesPerActivate::0-127         5625      1.69%      1.69% # Bytes accessed per row activation
system.mem_ctrls.bytesPerActivate::128-255       130709     39.19%     40.88% # Bytes accessed per row activation
system.mem_ctrls.bytesPerActivate::256-383        12829      3.85%     44.73% # Bytes accessed per row activation
system.mem_ctrls.bytesPerActivate::384-511        11166      3.35%     48.07% # Bytes accessed per row activation
system.mem_ctrls.bytesPerActivate::512-639        10298      3.09%     51.16% # Bytes accessed per row activation
system.mem_ctrls.bytesPerActivate::640-767        10301      3.09%     54.25% # Bytes accessed per row activation
system.mem_ctrls.bytesPerActivate::768-895        10414      3.12%     57.37% # Bytes accessed per row activation
system.mem_ctrls.bytesPerActivate::896-1023        10816      3.24%     60.62% # Bytes accessed per row activation
system.mem_ctrls.bytesPerActivate::1024-1151       131352     39.38%    100.00% # Bytes accessed per row activation
system.mem_ctrls.bytesPerActivate::total       333510                       # Bytes accessed per row activation
system.mem_ctrls.rdPerTurnAround::samples        82307                       # Reads before turning the bus around for writes
system.mem_ctrls.rdPerTurnAround::mean      18.086918                       # Reads before turning the bus around for writes
system.mem_ctrls.rdPerTurnAround::gmean     17.976469                       # Reads before turning the bus around for writes
system.mem_ctrls.rdPerTurnAround::stdev     24.245797                       # Reads before turning the bus around for writes
system.mem_ctrls.rdPerTurnAround::0-255         82305    100.00%    100.00% # Reads before turning the bus around for writes
system.mem_ctrls.rdPerTurnAround::2048-2303            1      0.00%    100.00% # Reads before turning the bus around for writes
system.mem_ctrls.rdPerTurnAround::6400-6655            1      0.00%    100.00% # Reads before turning the bus around for writes
system.mem_ctrls.rdPerTurnAround::total         82307                       # Reads before turning the bus around for writes
system.mem_ctrls.wrPerTurnAround::samples        82307                       # Writes before turning the bus around for reads
system.mem_ctrls.wrPerTurnAround::mean      17.977535                       # Writes before turning the bus around for reads
system.mem_ctrls.wrPerTurnAround::gmean     17.974561                       # Writes before turning the bus around for reads
system.mem_ctrls.wrPerTurnAround::stdev      0.321313                       # Writes before turning the bus around for reads
[...]
system.cpu.icache.ReadReq_avg_miss_latency::.cpu.inst 88730.941704                       # average ReadReq miss latency
system.cpu.icache.ReadReq_avg_miss_latency::total 88730.941704                       # average ReadReq miss latency
system.cpu.icache.ReadReq_mshr_misses::.cpu.inst          446                       # number of ReadReq MSHR misses
system.cpu.icache.ReadReq_mshr_misses::total          446                       # number of ReadReq MSHR misses
system.cpu.icache.ReadReq_mshr_miss_latency::.cpu.inst     38682000                       # number of ReadReq MSHR miss cycles
system.cpu.icache.ReadReq_mshr_miss_latency::total     38682000                       # number of ReadReq MSHR miss cycles
system.cpu.icache.ReadReq_mshr_miss_rate::.cpu.inst     0.000107                       # mshr miss rate for ReadReq accesses
system.cpu.icache.ReadReq_mshr_miss_rate::total     0.000107                       # mshr miss rate for ReadReq accesses
system.cpu.icache.ReadReq_avg_mshr_miss_latency::.cpu.inst 86730.941704                       # average ReadReq mshr miss latency
system.cpu.icache.ReadReq_avg_mshr_miss_latency::total 86730.941704                       # average ReadReq mshr miss latency
system.cpu.icache.tags.pwrStateResidencyTicks::UNDEFINED 200346530000                       # Cumulative time (in ticks) in various power states
system.cpu.icache.tags.tagsinuse           238.968610                       # Cycle average of tags in use
system.cpu.icache.tags.total_refs             4173791                       # Total number of references to valid blocks.
system.cpu.icache.tags.sampled_refs               446                       # Sample count of references to valid blocks.
system.cpu.icache.tags.avg_refs           9358.275785                       # Average number of references to valid blocks.
system.cpu.icache.tags.warmup_cycle            113000                       # Cycle when the warmup percentage was hit.
system.cpu.icache.tags.occ_blocks::.cpu.inst   238.968610                       # Average occupied blocks per requestor
system.cpu.icache.tags.occ_percent::.cpu.inst     0.466736                       # Average percentage of cache occupancy
system.cpu.icache.tags.occ_percent::total     0.466736                       # Average percentage of cache occupancy
system.cpu.icache.tags.occ_task_id_blocks::1024          239                       # Occupied blocks per task id
system.cpu.icache.tags.age_task_id_blocks_1024::4          239                       # Occupied blocks per task id
system.cpu.icache.tags.occ_task_id_percent::1024     0.466797                       # Percentage of cache occupancy per task id
system.cpu.icache.tags.tag_accesses           4174237                       # Number of tag accesses
system.cpu.icache.tags.data_accesses          4174237                       # Number of data accesses
system.cpu.dtb.walker.pwrStateResidencyTicks::UNDEFINED 200346530000                       # Cumulative time (in ticks) in various power states
system.cpu.dtb.stage2_mmu.stage2_tlb.walker.pwrStateResidencyTicks::UNDEFINED 200346530000                       # Cumulative time (in ticks) in various power states
system.cpu.dcache.pwrStateResidencyTicks::UNDEFINED 200346530000                       # Cumulative time (in ticks) in various power states
system.cpu.dcache.demand_hits::.cpu.data     47318648                       # number of demand (read+write) hits
system.cpu.dcache.demand_hits::total         47318648                       # number of demand (read+write) hits
system.cpu.dcache.overall_hits::.cpu.data     47318687                       # number of overall hits
system.cpu.dcache.overall_hits::total        47318687                       # number of overall hits
system.cpu.dcache.demand_misses::.cpu.data      1487941                       # number of demand (read+write) misses
system.cpu.dcache.demand_misses::total        1487941                       # number of demand (read+write) misses
system.cpu.dcache.overall_misses::.cpu.data      1487954                       # number of overall misses
system.cpu.dcache.overall_misses::total       1487954                       # number of overall misses
system.cpu.dcache.demand_miss_latency::.cpu.data 165341116000                       # number of demand (read+write) miss cycles
system.cpu.dcache.demand_miss_latency::total 165341116000                       # number of demand (read+write) miss cycles
system.cpu.dcache.overall_miss_latency::.cpu.data 165341116000                       # number of overall miss cycles
system.cpu.dcache.overall_miss_latency::total 165341116000                       # number of overall miss cycles
system.cpu.dcache.demand_accesses::.cpu.data     48806589                       # number of demand (read+write) accesses
system.cpu.dcache.demand_accesses::total     48806589                       # number of demand (read+write) accesses
system.cpu.dcache.overall_accesses::.cpu.data     48806641                       # number of overall (read+write) accesses
system.cpu.dcache.overall_accesses::total     48806641                       # number of overall (read+write) accesses
system.cpu.dcache.demand_miss_rate::.cpu.data     0.030486                       # miss rate for demand accesses
system.cpu.dcache.demand_miss_rate::total     0.030486                       # miss rate for demand accesses
system.cpu.dcache.overall_miss_rate::.cpu.data     0.030487                       # miss rate for overall accesses
system.cpu.dcache.overall_miss_rate::total     0.030487                       # miss rate for overall accesses
system.cpu.dcache.demand_avg_miss_latency::.cpu.data 111120.747395                       # average overall miss latency
system.cpu.dcache.demand_avg_miss_latency::total 111120.747395                       # average overall miss latency
system.cpu.dcache.overall_avg_miss_latency::.cpu.data 111119.776552                       # average overall miss latency
system.cpu.dcache.overall_avg_miss_latency::total 111119.776552                       # average overall miss latency
system.cpu.dcache.blocked_cycles::no_mshrs            0                       # number of cycles access was blocked
system.cpu.dcache.blocked_cycles::no_targets            0                       # number of cycles access was blocked
system.cpu.dcache.blocked::no_mshrs                 0                       # number of cycles access was blocked
system.cpu.dcache.blocked::no_targets               0                       # number of cycles access was blocked
system.cpu.dcache.avg_blocked_cycles::no_mshrs          nan                       # average number of cycles each access was blocked
system.cpu.dcache.avg_blocked_cycles::no_targets          nan                       # average number of cycles each access was blocked
system.cpu.dcache.writebacks::.writebacks       741900                       # number of writebacks
system.cpu.dcache.writebacks::total            741900                       # number of writebacks
system.cpu.dcache.demand_mshr_hits::.cpu.data       743920                       # number of demand (read+write) MSHR hits
system.cpu.dcache.demand_mshr_hits::total       743920                       # number of demand (read+write) MSHR hits
system.cpu.dcache.overall_mshr_hits::.cpu.data       743920                       # number of overall MSHR hits
system.cpu.dcache.overall_mshr_hits::total       743920                       # number of overall MSHR hits
system.cpu.dcache.demand_mshr_misses::.cpu.data       744021                       # number of demand (read+write) MSHR misses
system.cpu.dcache.demand_mshr_misses::total       744021                       # number of demand (read+write) MSHR misses
system.cpu.dcache.overall_mshr_misses::.cpu.data       744030                       # number of overall MSHR misses
system.cpu.dcache.overall_mshr_misses::total       744030                       # number of overall MSHR misses
system.cpu.dcache.demand_mshr_miss_latency::.cpu.data  84386256000                       # number of demand (read+write) MSHR miss cycles
system.cpu.dcache.demand_mshr_miss_latency::total  84386256000                       # number of demand (read+write) MSHR miss cycles
system.cpu.dcache.overall_mshr_miss_latency::.cpu.data  84387253000                       # number of overall MSHR miss cycles
system.cpu.dcache.overall_mshr_miss_latency::total  84387253000                       # number of overall MSHR miss cycles
system.cpu.dcache.demand_mshr_miss_rate::.cpu.data     0.015244                       # mshr miss rate for demand accesses
system.cpu.dcache.demand_mshr_miss_rate::total     0.015244                       # mshr miss rate for demand accesses
system.cpu.dcache.overall_mshr_miss_rate::.cpu.data     0.015244                       # mshr miss rate for overall accesses
system.cpu.dcache.overall_mshr_miss_rate::total     0.015244                       # mshr miss rate for overall accesses
system.cpu.dcache.demand_avg_mshr_miss_latency::.cpu.data 113419.185749                       # average overall mshr miss latency
system.cpu.dcache.demand_avg_mshr_miss_latency::total 113419.185749                       # average overall mshr miss latency
system.cpu.dcache.overall_avg_mshr_miss_latency::.cpu.data 113419.153798                       # average overall mshr miss latency
system.cpu.dcache.overall_avg_mshr_miss_latency::total 113419.153798                       # average overall mshr miss latency
system.cpu.dcache.replacements                 741982                       # number of replacements
system.cpu.dcache.ReadReq_hits::.cpu.data     35710912                       # number of ReadReq hits
system.cpu.dcache.ReadReq_hits::total        35710912                       # number of ReadReq hits
system.cpu.dcache.ReadReq_misses::.cpu.data           94                       # number of ReadReq misses
system.cpu.dcache.ReadReq_misses::total            94                       # number of ReadReq misses
system.cpu.dcache.ReadReq_miss_latency::.cpu.data      9070000                       # number of ReadReq miss cycles
system.cpu.dcache.ReadReq_miss_latency::total      9070000                       # number of ReadReq miss cycles
system.cpu.dcache.ReadReq_accesses::.cpu.data     35711006                       # number of ReadReq accesses(hits+misses)
system.cpu.dcache.ReadReq_accesses::total     35711006                       # number of ReadReq accesses(hits+misses)
system.cpu.dcache.ReadReq_miss_rate::.cpu.data     0.000003                       # miss rate for ReadReq accesses
system.cpu.dcache.ReadReq_miss_rate::total     0.000003                       # miss rate for ReadReq accesses
system.cpu.dcache.ReadReq_avg_miss_latency::.cpu.data 96489.361702                       # average ReadReq miss latency
system.cpu.dcache.ReadReq_avg_miss_latency::total 96489.361702                       # average ReadReq miss latency
system.cpu.dcache.ReadReq_mshr_hits::.cpu.data            5                       # number of ReadReq MSHR hits
system.cpu.dcache.ReadReq_mshr_hits::total            5                       # number of ReadReq MSHR hits
system.cpu.dcache.ReadReq_mshr_misses::.cpu.data           89                       # number of ReadReq MSHR misses
system.cpu.dcache.ReadReq_mshr_misses::total           89                       # number of ReadReq MSHR misses
system.cpu.dcache.ReadReq_mshr_miss_latency::.cpu.data      8321000                       # number of ReadReq MSHR miss cycles
system.cpu.dcache.ReadReq_mshr_miss_latency::total      8321000                       # number of ReadReq MSHR miss cycles
system.cpu.dcache.ReadReq_mshr_miss_rate::.cpu.data     0.000002                       # mshr miss rate for ReadReq accesses
system.cpu.dcache.ReadReq_mshr_miss_rate::total     0.000002                       # mshr miss rate for ReadReq accesses
system.cpu.dcache.ReadReq_avg_mshr_miss_latency::.cpu.data 93494.382022                       # average ReadReq mshr miss latency
system.cpu.dcache.ReadReq_avg_mshr_miss_latency::total 93494.382022                       # average ReadReq mshr miss latency
system.cpu.dcache.WriteReq_hits::.cpu.data     11607736                       # number of WriteReq hits
system.cpu.dcache.WriteReq_hits::total       11607736                       # number of WriteReq hits
system.cpu.dcache.WriteReq_misses::.cpu.data      1487847                       # number of WriteReq misses
system.cpu.dcache.WriteReq_misses::total      1487847                       # number of WriteReq misses
system.cpu.dcache.WriteReq_miss_latency::.cpu.data 165332046000                       # number of WriteReq miss cycles
system.cpu.dcache.WriteReq_miss_latency::total 165332046000                       # number of WriteReq miss cycles
system.cpu.dcache.WriteReq_accesses::.cpu.data     13095583                       # number of WriteReq accesses(hits+misses)
system.cpu.dcache.WriteReq_accesses::total     13095583                       # number of WriteReq accesses(hits+misses)
system.cpu.dcache.WriteReq_miss_rate::.cpu.data     0.113614                       # miss rate for WriteReq accesses
system.cpu.dcache.WriteReq_miss_rate::total     0.113614                       # miss rate for WriteReq accesses
system.cpu.dcache.WriteReq_avg_miss_latency::.cpu.data 111121.671785                       # average WriteReq miss latency
system.cpu.dcache.WriteReq_avg_miss_latency::total 111121.671785                       # average WriteReq miss latency
system.cpu.dcache.WriteReq_mshr_hits::.cpu.data       743915                       # number of WriteReq MSHR hits
system.cpu.dcache.WriteReq_mshr_hits::total       743915                       # number of WriteReq MSHR hits
system.cpu.dcache.WriteReq_mshr_misses::.cpu.data       743932                       # number of WriteReq MSHR misses
system.cpu.dcache.WriteReq_mshr_misses::total       743932                       # number of WriteReq MSHR misses
system.cpu.dcache.WriteReq_mshr_miss_latency::.cpu.data  84377935000                       # number of WriteReq MSHR miss cycles
system.cpu.dcache.WriteReq_mshr_miss_latency::total  84377935000                       # number of WriteReq MSHR miss cycles
system.cpu.dcache.WriteReq_mshr_miss_rate::.cpu.data     0.056808                       # mshr miss rate for WriteReq accesses
system.cpu.dcache.WriteReq_mshr_miss_rate::total     0.056808                       # mshr miss rate for WriteReq accesses
system.cpu.dcache.WriteReq_avg_mshr_miss_latency::.cpu.data 113421.569445                       # average WriteReq mshr miss latency
system.cpu.dcache.WriteReq_avg_mshr_miss_latency::total 113421.569445                       # average WriteReq mshr miss latency
system.cpu.dcache.SoftPFReq_hits::.cpu.data           39                       # number of SoftPFReq hits
system.cpu.dcache.SoftPFReq_hits::total            39                       # number of SoftPFReq hits
system.cpu.dcache.SoftPFReq_misses::.cpu.data           13                       # number of SoftPFReq misses
system.cpu.dcache.SoftPFReq_misses::total           13                       # number of SoftPFReq misses
system.cpu.dcache.SoftPFReq_accesses::.cpu.data           52                       # number of SoftPFReq accesses(hits+misses)
system.cpu.dcache.SoftPFReq_accesses::total           52                       # number of SoftPFReq accesses(hits+misses)
system.cpu.dcache.SoftPFReq_miss_rate::.cpu.data     0.250000                       # miss rate for SoftPFReq accesses
system.cpu.dcache.SoftPFReq_miss_rate::total     0.250000                       # miss rate for SoftPFReq accesses
system.cpu.dcache.SoftPFReq_mshr_misses::.cpu.data            9                       # number of SoftPFReq MSHR misses
system.cpu.dcache.SoftPFReq_mshr_misses::total            9                       # number of SoftPFReq MSHR misses
system.cpu.dcache.SoftPFReq_mshr_miss_latency::.cpu.data       997000                       # number of SoftPFReq MSHR miss cycles
system.cpu.dcache.SoftPFReq_mshr_miss_latency::total       997000                       # number of SoftPFReq MSHR miss cycles
system.cpu.dcache.SoftPFReq_mshr_miss_rate::.cpu.data     0.173077                       # mshr miss rate for SoftPFReq accesses
system.cpu.dcache.SoftPFReq_mshr_miss_rate::total     0.173077                       # mshr miss rate for SoftPFReq accesses
system.cpu.dcache.SoftPFReq_avg_mshr_miss_latency::.cpu.data 110777.777778                       # average SoftPFReq mshr miss latency
system.cpu.dcache.SoftPFReq_avg_mshr_miss_latency::total 110777.777778                       # average SoftPFReq mshr miss latency
system.cpu.dcache.LoadLockedReq_hits::.cpu.data           14                       # number of LoadLockedReq hits
system.cpu.dcache.LoadLockedReq_hits::total           14                       # number of LoadLockedReq hits
system.cpu.dcache.LoadLockedReq_accesses::.cpu.data           14                       # number of LoadLockedReq accesses(hits+misses)
system.cpu.dcache.LoadLockedReq_accesses::total           14                       # number of LoadLockedReq accesses(hits+misses)
system.cpu.dcache.StoreCondReq_hits::.cpu.data           14                       # number of StoreCondReq hits
system.cpu.dcache.StoreCondReq_hits::total           14                       # number of StoreCondReq hits
system.cpu.dcache.StoreCondReq_accesses::.cpu.data           14                       # number of StoreCondReq accesses(hits+misses)
system.cpu.dcache.StoreCondReq_accesses::total           14                       # number of StoreCondReq accesses(hits+misses)
system.cpu.dcache.tags.pwrStateResidencyTicks::UNDEFINED 200346530000                       # Cumulative time (in ticks) in various power states
system.cpu.dcache.tags.tagsinuse          2044.863062                       # Cycle average of tags in use
system.cpu.dcache.tags.total_refs            48062745                       # Total number of references to valid blocks.
system.cpu.dcache.tags.sampled_refs            744030                       # Sample count of references to valid blocks.
system.cpu.dcache.tags.avg_refs             64.597859                       # Average number of references to valid blocks.
system.cpu.dcache.tags.warmup_cycle            233000                       # Cycle when the warmup percentage was hit.
system.cpu.dcache.tags.occ_blocks::.cpu.data  2044.863062                       # Average occupied blocks per requestor
system.cpu.dcache.tags.occ_percent::.cpu.data     0.998468                       # Average percentage of cache occupancy
system.cpu.dcache.tags.occ_percent::total     0.998468                       # Average percentage of cache occupancy
system.cpu.dcache.tags.occ_task_id_blocks::1024         2048                       # Occupied blocks per task id
system.cpu.dcache.tags.age_task_id_blocks_1024::0           37                       # Occupied blocks per task id
system.cpu.dcache.tags.age_task_id_blocks_1024::1          333                       # Occupied blocks per task id
system.cpu.dcache.tags.age_task_id_blocks_1024::2         1676                       # Occupied blocks per task id
system.cpu.dcache.tags.age_task_id_blocks_1024::4            2                       # Occupied blocks per task id
system.cpu.dcache.tags.occ_task_id_percent::1024            1                       # Percentage of cache occupancy per task id
system.cpu.dcache.tags.tag_accesses         195970706                       # Number of tag accesses
system.cpu.dcache.tags.data_accesses        195970706                       # Number of data accesses
system.cpu.itb.walker.pwrStateResidencyTicks::UNDEFINED 200346530000                       # Cumulative time (in ticks) in various power states
system.cpu.itb.stage2_mmu.stage2_tlb.walker.pwrStateResidencyTicks::UNDEFINED 200346530000                       # Cumulative time (in ticks) in various power states

---------- End Simulation Statistics   ----------
